# This file was generated by ISODISTORT, version 6.7.2
# Harold T. Stokes, Branton J. Campbell, David Tanner, Dorian M. Hatch
# Brigham Young University, Provo, Utah, USA
#
# Space Group: 221 Pm-3m      Oh-1
# Default space-group preferences: monoclinic axes a(b)c, monoclinic cell choice 1, orthorhombic axes abc, origin choice 2, hexagonal axes, SSG standard setting
# Lattice parameters: a=3.67367, b=3.67367, c=3.67367, alpha=90.00000, beta=90.00000, gamma=90.00000
# Fe0 3c (0,1/2,1/2)
# Fe1 1a (0,0,0)
# N2 1b (1/2,1/2,1/2)
# Include strain, displacive ALL distortions
# k point: X, k10 (0,1/2,0)
# IR: X5+, k10t9
# P2   (0,a;0,0;0,0)  51 Pmma, basis={(0,2,0),(-1,0,0),(0,0,1)}, origin=(0,0,0), s=2, i=12, k-active= (0,1/2,0)
# Order parameter values:
#  Pm-3m[0,1/2,0]X5+(0,a;0,0;0,0) 51 Pmma s=2 i=12
#     [Fe0:c:dsp]A2u(a): 0.50000
#     [Fe0:c:dsp]Eu(a): 0.50000
#     [N2:b:dsp]T1u(a): 0.50000
#  Pm-3m[0,0,0]GM1+(a) 221 Pm-3m s=1 i=1
#     strain(a): 0.00600
#  Pm-3m[0,0,0]GM3+(a,b) 47 Pmmm s=1 i=6
#     strain(a): 0.10000
#     strain(b): 0.10000

data_isodistort-output

_symmetry_space_group_name_H-M "Pmma"
_cell_length_a    6.55331
_cell_length_b    3.79619
_cell_length_c    3.98635
_cell_angle_alpha 90.00000
_cell_angle_beta  90.00000
_cell_angle_gamma 90.00000
_symmetry_Int_Tables_number 51
_chemical_formula_structural Fe4N
_chemical_formula_sum 'Fe4 N1'
_cell_volume      99.17090
_cell_formula_units_Z 2

loop_
 _symmetry_equiv_pos_site_id
 _symmetry_equiv_pos_as_xyz
1 x,y,z
2 x+1/2,-y,-z
3 -x,y,-z
4 -x+1/2,-y,z
5 -x,-y,-z
6 -x+1/2,y,z
7 x,-y,z
8 x+1/2,y,-z

loop_
_atom_site_label
_atom_site_type_symbol
_atom_site_symmetry_multiplicity
_atom_site_Wyckoff_label
_atom_site_fract_x
_atom_site_fract_y
_atom_site_fract_z
_atom_site_occupancy
Fe0_1 Fe   2 e 0.25000 0.00000 0.40376  1.00000
Fe0_2 Fe   2 f 0.25000 0.50000 -0.09624 1.00000
Fe0_3 Fe   2 d 0.00000 0.50000 0.50000  1.00000
Fe1_1 Fe   2 a 0.00000 0.00000 0.00000  1.00000
N2_1  N    2 f 0.25000 0.50000 0.40376  1.00000

