# This file was generated by ISODISTORT, version 6.7.2
# Harold T. Stokes, Branton J. Campbell, David Tanner, Dorian M. Hatch
# Brigham Young University, Provo, Utah, USA
#
# Space Group: 221 Pm-3m      Oh-1
# Default space-group preferences: monoclinic axes a(b)c, monoclinic cell choice 1, orthorhombic axes abc, origin choice 2, hexagonal axes, SSG standard setting
# Lattice parameters: a=3.67367, b=3.67367, c=3.67367, alpha=90.00000, beta=90.00000, gamma=90.00000
# Fe0 3c (0,1/2,1/2)
# Fe1 1a (0,0,0)
# N2 1b (1/2,1/2,1/2)
# Include strain, displacive ALL distortions
# k point: X, k10 (0,1/2,0)
# IR: X5+, k10t9
# C1   (a,b;0,0;0,0)  11 P2_1/m, basis={(1,0,0),(0,2,0),(0,0,1)}, origin=(0,0,0), s=2, i=24, k-active= (0,1/2,0)
# Order parameter values:
#  Pm-3m[0,1/2,0]X5+(a,b;0,0;0,0) 11 P2_1/m s=2 i=24
#     [Fe0:c:dsp]A2u(a): 0.50000
#     [Fe0:c:dsp]A2u(b): 0.50000
#     [Fe0:c:dsp]Eu(a): 0.50000
#     [Fe0:c:dsp]Eu(b): 0.50000
#     [N2:b:dsp]T1u(a): 0.50000
#     [N2:b:dsp]T1u(b): 0.50000
#  Pm-3m[0,0,0]GM1+(a) 221 Pm-3m s=1 i=1
#     strain(a): 0.01000
#  Pm-3m[0,0,0]GM3+(a,b) 47 Pmmm s=1 i=6
#     strain(a): 0.10000
#     strain(b): 0.10000
#  Pm-3m[0,0,0]GM5+(0,0,a) 65 Cmmm s=1 i=6
#     strain(a): 0.10000

data_isodistort-output

_cell_length_a    3.81353
_cell_length_b    6.57028
_cell_length_c    4.00327
_cell_angle_alpha 90.00000
_cell_angle_beta  82.37366
_cell_angle_gamma 90.00000
_cell_volume      99.41861

_symmetry_space_group_name_H-M "P 1 21/m 1"
_symmetry_Int_Tables_number 11
_space_group.reference_setting '011:-P 2yb'
_space_group.transform_Pp_abc a,b,c;0,0,0

loop_
_space_group_symop_id
_space_group_symop_operation_xyz
1 x,y,z
2 -x,y+1/2,-z
3 -x,-y,-z
4 x,-y+1/2,z

loop_
_atom_site_label
_atom_site_type_symbol
_atom_site_symmetry_multiplicity
_atom_site_Wyckoff_label
_atom_site_fract_x
_atom_site_fract_y
_atom_site_fract_z
_atom_site_occupancy
_atom_site_fract_symmform
Fe0_1 Fe   2 e 0.09624 0.25000 0.40376  1.00000 Dx,0,Dz 
Fe0_2 Fe   2 e 0.59624 0.25000 -0.09624 1.00000 Dx,0,Dz 
Fe0_3 Fe   2 d 0.50000 0.00000 0.50000  1.00000 0,0,0   
Fe1_1 Fe   2 a 0.00000 0.00000 0.00000  1.00000 0,0,0   
N2_1  N    2 e 0.59624 0.25000 0.40376  1.00000 Dx,0,Dz 
